Version 4
SHEET 1 3400 916
WIRE 832 -704 768 -704
WIRE 960 -704 832 -704
WIRE 1072 -704 960 -704
WIRE 1328 -704 1072 -704
WIRE 1616 -704 1328 -704
WIRE 768 -688 768 -704
WIRE 832 -688 832 -704
WIRE 960 -688 960 -704
WIRE 1328 -672 1328 -704
WIRE 1280 -656 1152 -656
WIRE 768 -560 768 -624
WIRE 832 -560 832 -624
WIRE 832 -560 768 -560
WIRE 960 -560 960 -608
WIRE 960 -560 832 -560
WIRE 1152 -560 1152 -656
WIRE 1152 -560 960 -560
WIRE 320 -496 288 -496
WIRE 768 -496 768 -560
WIRE 768 -496 512 -496
WIRE 288 -480 288 -496
WIRE 320 -400 208 -400
WIRE 768 -400 512 -400
WIRE 768 -368 768 -400
WIRE 768 -256 768 -288
WIRE 1072 -224 1072 -704
WIRE 1328 -192 1328 -576
WIRE 1456 -192 1328 -192
WIRE 1472 -192 1456 -192
WIRE 1616 -192 1616 -704
WIRE 1744 -192 1616 -192
WIRE 1760 -192 1744 -192
WIRE 768 -160 768 -192
WIRE 1616 -112 1616 -192
WIRE 1328 -80 1328 -192
WIRE 64 -32 16 -32
WIRE 208 -32 208 -400
WIRE 208 -32 144 -32
WIRE 768 16 1072 -224
WIRE 768 96 768 16
WIRE 1328 96 1328 0
WIRE 1456 96 1328 96
WIRE 1472 96 1456 96
WIRE 1616 96 1616 -32
WIRE 1744 96 1616 96
WIRE 1760 96 1744 96
WIRE 1072 128 768 -160
WIRE 768 176 768 160
WIRE 208 272 208 -32
WIRE 320 272 208 272
WIRE 768 272 768 256
WIRE 768 272 512 272
WIRE 320 368 288 368
WIRE 768 368 512 368
WIRE 288 384 288 368
WIRE 768 432 768 368
WIRE 832 432 768 432
WIRE 976 432 832 432
WIRE 1152 432 976 432
WIRE 1328 448 1328 96
WIRE 976 480 976 432
WIRE 768 496 768 432
WIRE 832 496 832 432
WIRE 1152 528 1152 432
WIRE 1280 528 1152 528
WIRE 768 576 768 560
WIRE 832 576 832 560
WIRE 832 576 768 576
WIRE 976 576 976 560
WIRE 976 576 832 576
WIRE 1072 576 1072 128
WIRE 1072 576 976 576
WIRE 1328 576 1328 544
WIRE 1328 576 1072 576
WIRE 1616 576 1616 96
WIRE 1616 576 1328 576
WIRE 16 608 16 -32
WIRE 1328 608 1328 576
FLAG 16 688 0
FLAG 288 384 0
FLAG 1456 96 AC_OUT_N
FLAG 1456 -192 AC_OUT_L
FLAG 1328 608 0
FLAG 1744 -192 AC_IN_L
FLAG 1744 96 AC_IN_N
FLAG 288 -480 0
SYMBOL voltage 16 592 R0
WINDOW 123 0 0 Left 0
WINDOW 39 0 0 Left 0
WINDOW 3 45 61 Left 2
SYMATTR Value PULSE(0 3.3 4m 100u 100u 500m 1)
SYMATTR InstName V2
SYMBOL nmos 1280 448 R0
SYMATTR InstName M3
SYMATTR Value STP8NM60
SYMBOL res 1312 -96 R0
SYMATTR InstName R10
SYMATTR Value 200
SYMBOL voltage 1616 -128 M0
WINDOW 123 0 0 Left 0
WINDOW 39 0 0 Left 0
SYMATTR InstName V1
SYMATTR Value SINE(0 325 50)
SYMBOL cap 816 496 R0
SYMATTR InstName C1
SYMATTR Value 220n
SYMBOL diode 752 96 R0
SYMATTR InstName D1
SYMBOL zener 784 560 R180
WINDOW 0 24 64 Left 2
WINDOW 3 24 0 Left 2
SYMATTR InstName D2
SYMATTR Value BZX84C18VLY
SYMATTR Description Diode
SYMATTR Type diode
SYMBOL res 752 160 R0
SYMATTR InstName R1
SYMATTR Value 100k
SYMBOL res 960 464 R0
SYMATTR InstName R2
SYMATTR Value 80k
SYMBOL cap 816 -624 M180
WINDOW 0 24 56 Left 2
WINDOW 3 24 8 Left 2
SYMATTR InstName C2
SYMATTR Value 220n
SYMBOL diode 752 -192 M180
WINDOW 0 24 64 Left 2
WINDOW 3 24 0 Left 2
SYMATTR InstName D4
SYMBOL zener 784 -688 M0
SYMATTR InstName D5
SYMATTR Value BZX84C18VLY
SYMATTR Description Diode
SYMATTR Type diode
SYMBOL res 752 -272 M180
WINDOW 0 36 76 Left 2
WINDOW 3 36 40 Left 2
SYMATTR InstName R4
SYMATTR Value 100k
SYMBOL res 944 -592 M180
WINDOW 0 36 76 Left 2
WINDOW 3 36 40 Left 2
SYMATTR InstName R5
SYMATTR Value 80k
SYMBOL nmos 1280 -576 M180
SYMATTR InstName M1
SYMATTR Value STP8NM60
SYMBOL MOC3063 416 -448 M180
SYMATTR InstName U3
SYMBOL MOC3063 416 320 R0
SYMATTR InstName U4
SYMBOL res 48 -16 R270
WINDOW 0 32 56 VTop 2
WINDOW 3 0 56 VBottom 2
SYMATTR InstName R3
SYMATTR Value 100
TEXT 784 -800 Left 2 !.tran 2
TEXT 776 -872 Left 2 !.options maxstep=10u method=gear
